Version 4
SHEET 1 1708 820
WIRE -928 32 -1040 32
WIRE -512 32 -928 32
WIRE 48 32 -512 32
WIRE 48 64 48 32
WIRE -1376 192 -1504 192
WIRE -1040 208 -1040 32
WIRE -32 224 -32 128
WIRE -32 224 -448 224
WIRE 0 224 -32 224
WIRE -1120 272 -1232 272
WIRE -1232 288 -1232 272
WIRE -1376 336 -1376 192
WIRE -192 352 -384 352
WIRE 48 352 48 240
WIRE 48 352 -192 352
WIRE -1120 368 -1120 272
WIRE -1040 368 -1040 288
WIRE -1040 368 -1120 368
WIRE -832 368 -1040 368
WIRE -448 368 -448 224
WIRE -448 368 -576 368
WIRE -928 464 -928 32
WIRE -832 464 -928 464
WIRE -384 464 -384 352
WIRE -384 464 -576 464
WIRE -192 464 -192 352
FLAG -512 112 0
FLAG -1504 272 0
FLAG -1376 192 pulse_source
FLAG -32 128 gate
FLAG -192 544 0
FLAG -1232 384 0
SYMBOL voltage -512 16 R0
WINDOW 0 -83 29 Left 2
WINDOW 3 -86 70 Left 2
WINDOW 123 0 0 Left 0
WINDOW 39 0 0 Left 0
SYMATTR InstName V1
SYMATTR Value 30
SYMBOL voltage -1504 176 R0
WINDOW 0 -79 39 Left 2
WINDOW 3 -396 103 Left 2
WINDOW 123 0 0 Left 0
WINDOW 39 0 0 Left 0
SYMATTR InstName V2
SYMATTR Value PULSE(0 5 1n 1n 1n 1u 10u)
SYMBOL res -1280 320 R90
WINDOW 0 0 56 VBottom 2
WINDOW 3 -53 54 VTop 2
SYMATTR InstName R4
SYMATTR Value 1k
SYMBOL res 32 48 R0
SYMATTR InstName R2
SYMATTR Value 5
SYMBOL nmos 0 144 R0
SYMATTR InstName M1
SYMATTR Value BSB015N04NX3
SYMBOL voltage -192 448 R0
WINDOW 123 0 0 Left 0
WINDOW 39 0 0 Left 0
SYMATTR InstName V3
SYMATTR Value 15
SYMBOL PowerProducts\\ADP3654 -704 368 R0
SYMATTR InstName U1
SYMBOL npn -1296 288 R0
SYMATTR InstName Q1
SYMBOL res -1056 192 R0
SYMATTR InstName R1
SYMATTR Value 1k
TEXT -1624 480 Left 2 !.tran 0 80u 0 5n startup
