Version 4
SHEET 1 880 680
WIRE 368 32 48 32
WIRE 48 96 48 32
WIRE 368 272 368 32
WIRE 288 288 48 288
WIRE 48 320 48 288
FLAG 48 400 0
FLAG 48 176 0
FLAG 368 336 0
SYMBOL voltage 48 80 R0
WINDOW 123 0 0 Left 0
WINDOW 39 0 0 Left 0
SYMATTR InstName V1
SYMATTR Value 28
SYMBOL voltage 48 304 R0
WINDOW 123 0 0 Left 0
WINDOW 39 0 0 Left 0
SYMATTR InstName V2
SYMATTR Value PULSE(0 5 1n 1n 1n 50u 100u)
SYMBOL OpAmps\\LM317 368 304 R0
SYMATTR InstName U1
TEXT 8 424 Left 2 !.tran 0 10m 0 100n
