Version 4
SHEET 1 2472 1256
WIRE 1600 -496 1264 -496
WIRE 1264 -416 1264 -496
WIRE 1424 -272 544 -272
WIRE 1600 -272 1600 -496
WIRE 1744 -272 1600 -272
WIRE 1952 -272 1840 -272
WIRE 2032 -272 1952 -272
WIRE 2080 -272 2032 -272
WIRE 2192 -272 2160 -272
WIRE 2320 -272 2192 -272
WIRE 2416 -272 2320 -272
WIRE 2192 -240 2192 -272
WIRE 2320 -240 2320 -272
WIRE 2032 -224 2032 -272
WIRE 1232 -208 1104 -208
WIRE 1424 -208 1424 -272
WIRE 1424 -208 1296 -208
WIRE 1824 -192 1824 -224
WIRE 1824 -160 1824 -192
WIRE 1424 -112 1424 -208
WIRE 1520 -112 1424 -112
WIRE 1008 -80 992 -80
WIRE 1104 -80 1104 -208
WIRE 1104 -80 1088 -80
WIRE 1136 -80 1104 -80
WIRE 1424 -80 1424 -112
WIRE 1424 -80 1392 -80
WIRE 1136 0 736 0
WIRE 1824 0 1824 -80
WIRE 1824 0 1392 0
WIRE 736 16 736 0
WIRE 1136 80 1104 80
WIRE 1520 80 1520 -48
WIRE 1520 80 1392 80
WIRE 1904 80 1520 80
WIRE 1952 80 1952 -272
WIRE 1952 80 1904 80
WIRE 736 112 736 96
WIRE 1616 240 1216 240
WIRE 1904 240 1904 80
WIRE 1904 240 1616 240
WIRE 2128 240 1904 240
WIRE 1216 288 1216 240
WIRE 1648 320 1456 320
WIRE 1904 320 1904 240
WIRE 1904 320 1872 320
WIRE 2128 352 2128 240
WIRE 2336 352 2128 352
WIRE 1568 384 1344 384
WIRE 1648 384 1568 384
WIRE 2336 400 2336 352
WIRE 1344 416 1344 384
WIRE 1568 416 1568 384
WIRE 1920 416 1568 416
WIRE 2128 416 2128 352
WIRE 1648 448 1552 448
WIRE 1920 448 1920 416
WIRE 1920 448 1872 448
WIRE 1984 448 1920 448
WIRE 2128 496 2128 480
WIRE 2336 496 2336 464
WIRE 2336 496 2128 496
WIRE 544 512 544 -272
WIRE 1040 512 544 512
WIRE 1120 512 1040 512
WIRE 1216 512 1216 352
WIRE 1216 512 1184 512
WIRE 1232 512 1216 512
WIRE 1344 512 1344 496
WIRE 1344 512 1296 512
WIRE 1552 512 1552 448
WIRE 1552 512 1344 512
WIRE 1616 512 1616 240
WIRE 1648 512 1616 512
WIRE 1920 512 1872 512
WIRE 1920 544 1920 512
WIRE 1456 608 1456 320
WIRE 1920 608 1456 608
WIRE 1984 608 1984 512
WIRE 1984 608 1920 608
WIRE 2128 608 2128 496
WIRE 2128 608 1984 608
WIRE 2160 608 2128 608
WIRE 2256 608 2240 608
WIRE 2256 640 2256 608
FLAG 1104 80 0
FLAG 992 -80 0
FLAG 736 112 0
FLAG 1264 -336 0
FLAG 2032 -160 0
FLAG 2192 -176 0
FLAG 2320 -160 0
FLAG 2416 -272 out
FLAG 1824 -192 gate
FLAG 1952 -272 source
FLAG 1040 512 neout
FLAG 2256 640 0
SYMBOL PowerProducts\\LTC4440 1264 0 R0
SYMATTR InstName U1
SYMBOL voltage 1104 -80 R90
WINDOW 0 -32 56 VBottom 2
WINDOW 3 32 56 VTop 2
WINDOW 123 0 0 Left 0
WINDOW 39 0 0 Left 0
SYMATTR InstName V1
SYMATTR Value 12
SYMBOL voltage 736 0 R0
WINDOW 123 0 0 Left 2
WINDOW 39 0 0 Left 2
SYMATTR InstName V2
SYMATTR Value PULSE(0 5 0 1n 1n 1u 20u)
SYMBOL nmos 1744 -224 R270
SYMATTR InstName M1
SYMATTR Value BSC028N06LS3
SYMBOL voltage 1264 -432 R0
WINDOW 123 0 0 Left 0
WINDOW 39 0 0 Left 0
SYMATTR InstName V3
SYMATTR Value 30
SYMBOL res 1808 -176 R0
SYMATTR InstName R1
SYMATTR Value 10
SYMBOL cap 1504 -112 R0
SYMATTR InstName C1
SYMATTR Value 100n
SYMBOL ind 2064 -256 R270
WINDOW 0 32 56 VTop 2
WINDOW 3 5 56 VBottom 2
SYMATTR InstName L1
SYMATTR Value 80µ
SYMBOL schottky 2048 -160 R180
WINDOW 0 24 64 Left 2
WINDOW 3 24 0 Left 2
SYMATTR InstName D2
SYMATTR Value MBR745
SYMATTR Description Diode
SYMATTR Type diode
SYMBOL cap 2176 -240 R0
SYMATTR InstName C2
SYMATTR Value 470µ
SYMBOL res 2304 -256 R0
SYMATTR InstName R2
SYMATTR Value 10
SYMBOL Misc\\NE555 1760 416 R0
SYMATTR InstName U2
SYMBOL schottky 1232 -192 R270
WINDOW 0 32 32 VTop 2
WINDOW 3 0 32 VBottom 2
SYMATTR InstName D1
SYMATTR Value 1N5819
SYMATTR Description Diode
SYMATTR Type diode
SYMBOL res 1328 400 R0
SYMATTR InstName R3
SYMATTR Value 100k
SYMBOL cap 1968 448 R0
SYMATTR InstName C3
SYMATTR Value 1n
SYMBOL cap 1296 496 R90
WINDOW 0 0 32 VBottom 2
WINDOW 3 32 32 VTop 2
SYMATTR InstName C4
SYMATTR Value 10n
SYMBOL diode 1184 496 R90
WINDOW 0 0 32 VBottom 2
WINDOW 3 32 32 VTop 2
SYMATTR InstName D3
SYMATTR Value 1N4148
SYMBOL diode 1200 288 R0
WINDOW 0 -41 7 Left 2
WINDOW 3 -103 43 Left 2
SYMATTR InstName D4
SYMATTR Value 1N4148
SYMBOL cap 1904 544 R0
WINDOW 0 38 13 Left 2
WINDOW 3 37 37 Left 2
SYMATTR InstName C6
SYMATTR Value 10n
SYMBOL zener 2144 480 R180
WINDOW 0 -43 52 Left 2
WINDOW 3 -124 19 Left 2
SYMATTR InstName D5
SYMATTR Value BZX84C15L
SYMATTR Description Diode
SYMATTR Type diode
SYMBOL res 2256 592 R90
WINDOW 0 0 56 VBottom 2
WINDOW 3 32 56 VTop 2
SYMATTR InstName R4
SYMATTR Value 1k
SYMBOL cap 2320 400 R0
SYMATTR InstName C5
SYMATTR Value 100n
TEXT 1304 176 Left 2 !.tran 0 50m 0 1m
